Circuit: * C:\Users\maruzka\Documents\Kicad\envcity_aqm_v2\simulacoes\power_path\Draft2.asc

Direct Newton iteration for .op point succeeded.

Date: Sun Jan 22 16:19:13 2023
Total elapsed time: 0.179 seconds.

tnom = 27
temp = 27
method = modified trap
totiter = 2088
traniter = 2082
tranpoints = 1042
accept = 1042
rejected = 0
matrix size = 18
fillins = 0
solver = Normal
Matrix Compiler1: 780 bytes object code size  0.5/0.3/[0.2]
Matrix Compiler2: 1.27 KB object code size  0.3/0.5/[0.2]

