Circuit: * C:\Users\maruzka\Documents\Kicad\envcity_aqm_v2\simulacoes\power_path\Draft1.asc

Direct Newton iteration for .op point succeeded.

Date: Sun Jan 22 00:49:56 2023
Total elapsed time: 0.164 seconds.

tnom = 27
temp = 27
method = modified trap
totiter = 2095
traniter = 2082
tranpoints = 1042
accept = 1042
rejected = 0
matrix size = 11
fillins = 0
solver = Normal
Matrix Compiler1: 556 bytes object code size  0.2/0.1/[0.1]
Matrix Compiler2: 927 bytes object code size  0.3/0.2/[0.2]

