Circuit: * C:\Users\maruzka\Documents\Kicad\AQM-WROOM\aqm_envcity_hw\simulacoes\power_path\Draft2.asc

Direct Newton iteration for .op point succeeded.

Date: Sat Aug 26 20:15:24 2023
Total elapsed time: 0.094 seconds.

tnom = 27
temp = 27
method = modified trap
totiter = 2088
traniter = 2082
tranpoints = 1042
accept = 1042
rejected = 0
matrix size = 11
fillins = 0
solver = Normal
Matrix Compiler1: 548 bytes object code size  0.3/0.1/[0.1]
Matrix Compiler2: 861 bytes object code size  0.1/0.1/[0.1]

