Circuit: * C:\Users\maruzka\Documents\Kicad\AQM-WROOM\aqm_envcity_hw\simulacoes\power_path\powerpath_heltec_adaptado.asc

WARNING: Specified period is not longer than the sum of Trise, Tfall, and Ton for v3.  Increasing period to 0.02
Direct Newton iteration failed to find .op point.  (Use ".option noopiter" to skip.)
Starting Gmin stepping
Gmin = 10
Gmin = 1.07374
Gmin = 0.115292
Gmin = 0.0123794
Gmin = 0.00132923
Gmin = 0.000142725
Gmin = 1.5325e-005
Gmin = 1.6455e-006
Gmin = 1.76685e-007
Gmin = 1.89714e-008
Gmin = 2.03704e-009
Gmin = 2.18725e-010
Gmin = 2.34854e-011
Gmin = 2.52173e-012
Gmin = 2.70769e-013
Gmin = 0
Gmin stepping succeeded in finding the operating point.


pin: AVG(v(vin1)*-i(v3))=5.1041 FROM 0 TO 0.05

Measurement "pout" FAIL'ed

Measurement "eff" FAIL'ed


Date: Sat Jun 24 20:06:13 2023
Total elapsed time: 0.250 seconds.

tnom = 27
temp = 27
method = modified trap
totiter = 4407
traniter = 4056
tranpoints = 1554
accept = 1413
rejected = 141
matrix size = 48
fillins = 56
solver = Normal
Matrix Compiler1: 6.87 KB object code size  2.1/0.8/[0.5]
Matrix Compiler2: 5.19 KB object code size  1.2/0.9/[0.5]

