Circuit: * E:\Projetos Kicad\aqm_envcity_hw\simulacoes\power_path\powerpath_heltec_adaptado.asc

Warning: Multiple definitions of model "2scr375p" Type: BJT
Warning: Multiple definitions of model "bc857b" Type: BJT
Warning: Multiple definitions of model "bc847c" Type: BJT
Warning: Multiple definitions of model "bc847b" Type: BJT
WARNING: Less than two connections to node vin2.  This node is used by v1.
Direct Newton iteration for .op point succeeded.

pin: AVG(v(vin1)*-i(v3))=4.64482 FROM 0 TO 0.01

Measurement "pout" FAIL'ed

Measurement "eff" FAIL'ed


Date: Thu May  2 20:20:52 2024
Total elapsed time: 0.150 seconds.

tnom = 27
temp = 27
method = modified trap
totiter = 2092
traniter = 2082
tranpoints = 1042
accept = 1042
rejected = 0
matrix size = 51
fillins = 48
solver = Normal
Avg thread counts: 2.9/4.9/4.9/2.9
Matrix Compiler1: 6.72 KB object code size  1.3/0.7/[0.6]
Matrix Compiler2: 5.27 KB object code size  0.4/0.5/[0.4]

