Circuit: * C:\Users\maruzka\Documents\Kicad\envcity_aqm_v2\simulacoes\power_path\powerpath_heltec_adaptado.asc

WARNING: Less than two connections to node VIN2.  This node is used by V1.
WARNING: Less than two connections to node VIN1.  This node is used by V3.
Direct Newton iteration failed to find .op point.  (Use ".option noopiter" to skip.)
Starting Gmin stepping
Gmin = 10
Gmin = 1.07374
Gmin = 0.115292
Gmin = 0.0123794
Gmin = 0.00132923
Gmin = 0.000142725
Gmin = 1.5325e-005
Gmin = 1.6455e-006
Gmin = 1.76685e-007
Gmin = 1.89714e-008
Gmin = 2.03704e-009
Gmin = 2.18725e-010
Gmin = 2.34854e-011
Gmin = 2.52173e-012
Gmin = 2.70769e-013
Gmin = 0
Gmin stepping succeeded in finding the operating point.


pin: AVG(v(vin1)*-i(v3))=0 FROM 0 TO 0.05

Measurement "pout" FAIL'ed

Measurement "eff" FAIL'ed


Date: Sun Jan 22 14:48:18 2023
Total elapsed time: 0.363 seconds.

tnom = 27
temp = 27
method = modified trap
totiter = 2526
traniter = 2082
tranpoints = 1042
accept = 1042
rejected = 0
matrix size = 50
fillins = 70
solver = Normal
Matrix Compiler1: 7.80 KB object code size  3.2/2.7/[1.2]
Matrix Compiler2: 5.48 KB object code size  1.4/1.6/[0.7]

