Circuit: * C:\Users\maruzka\Documents\Kicad\envcity_aqm_v2\simulacoes\Draft9.asc

Direct Newton iteration for .op point succeeded.

Date: Wed Jan 18 20:24:10 2023
Total elapsed time: 0.225 seconds.

tnom = 27
temp = 27
method = modified trap
totiter = 2131
traniter = 2082
tranpoints = 1042
accept = 1042
rejected = 0
matrix size = 70
fillins = 53
solver = Normal
Thread vector: 15.4/11.7[2] 34.0/6.1[2] 3.5/11.6[1] 0.8/2.1[1]  2592/500
Matrix Compiler1: 5.45 KB object code size  3.5/2.4/[0.9]
Matrix Compiler2: 6.28 KB object code size  1.6/3.2/[0.9]

