Circuit: * C:\Users\maruzka\Documents\Kicad\envcity_aqm_v2\simulacoes\Draft5.asc

R1: both pins shorted together -- ignoring.
WARNING: Less than two connections to node N001.  This node is used by D2.
WARNING: Less than two connections to node N004.  This node is used by D3.
WARNING: Less than two connections to node VUSB.  This node is used by V2.
WARNING: Less than two connections to node VSOLAR.  This node is used by V3.
Direct Newton iteration failed to find .op point.  (Use ".option noopiter" to skip.)
Starting Gmin stepping
Gmin = 10
Gmin = 1.07374
Gmin = 0.115292
Gmin = 0.0123794
Gmin = 0.00132923
Gmin = 0.000142725
Gmin = 1.5325e-005
Gmin = 1.6455e-006
Gmin = 1.76685e-007
Gmin = 1.89714e-008
Gmin = 2.03704e-009
Gmin = 2.18725e-010
Gmin = 2.34854e-011
Gmin = 2.52173e-012
Gmin = 2.70769e-013
Gmin = 0
Gmin stepping succeeded in finding the operating point.


Date: Mon Jan 16 22:37:19 2023
Total elapsed time: 0.640 seconds.

tnom = 27
temp = 27
method = modified trap
totiter = 2602
traniter = 2156
tranpoints = 1063
accept = 1062
rejected = 1
matrix size = 111
fillins = 27
solver = Normal
Thread vector: 34.0/26.5[3] 15.8/9.1[3] 6.6/8.1[1] 0.8/1.2[1]  2592/500
Matrix Compiler1: 5.12 KB object code size  17.8/3.3/[1.3]
Matrix Compiler2: 6.82 KB object code size  1.9/2.8/[0.8]

