Circuit: * C:\Users\maruzka\Documents\Kicad\envcity_aqm_v2\simulacoes\Draft2.asc

Direct Newton iteration for .op point succeeded.
Semiconductor Device Operating Points:
                        --- Diodes ---
Name:      d1
Model:  smbj24ca
Id:      2.00e-08
Vd:      9.98e-01
Req:     2.00e-08
CAP:     0.00e+00



Date: Fri Jan 13 00:49:27 2023
Total elapsed time: 3.448 seconds.

tnom = 27
temp = 27
method = trap
totiter = 4
traniter = 0
tranpoints = 0
accept = 0
rejected = 0
matrix size = 3
fillins = 0
solver = Normal
Matrix Compiler1: 68 bytes object code size
Matrix Compiler2: 155 bytes object code size
