Circuit: * C:\Users\maruzka\Documents\Kicad\envcity_aqm_v2\simulacoes\Draft6.asc

WARNING: Less than two connections to node VIN.  This node is used by V2.
Direct Newton iteration failed to find .op point.  (Use ".option noopiter" to skip.)
Starting Gmin stepping
Gmin = 10
Gmin = 1.07374
Gmin = 0.115292
Gmin = 0.0123794
Gmin = 0.00132923
Gmin = 0.000142725
Gmin = 1.5325e-005
Gmin = 1.6455e-006
Gmin = 1.76685e-007
Gmin = 1.89714e-008
Gmin = 2.03704e-009
Gmin = 2.18725e-010
Gmin = 2.34854e-011
Gmin = 2.52173e-012
Gmin = 2.70769e-013
Gmin = 0
Gmin stepping succeeded in finding the operating point.


Date: Tue Jan 17 19:16:09 2023
Total elapsed time: 0.249 seconds.

tnom = 27
temp = 27
method = modified trap
totiter = 2528
traniter = 2082
tranpoints = 1042
accept = 1042
rejected = 0
matrix size = 17
fillins = 0
solver = Normal
Matrix Compiler1: 838 bytes object code size  0.6/0.8/[0.2]
Matrix Compiler2: 1.38 KB object code size  0.4/0.5/[0.3]

