Circuit: * C:\Users\maruzka\Documents\Kicad\envcity_aqm_v2\simulacoes\Draft8.asc

WARNING: Less than two connections to node N003.  This node is used by V2.
WARNING: Less than two connections to node NC_01.  This node is used by V4.
.OP point found by inspection.

Date: Fri Jan 20 17:14:19 2023
Total elapsed time: 0.569 seconds.

tnom = 27
temp = 27
method = modified trap
totiter = 4471
traniter = 4471
tranpoints = 1421
accept = 1285
rejected = 136
matrix size = 44
fillins = 42
solver = Normal
Matrix Compiler1: 5.40 KB object code size  2.3/1.9/[1.2]
Matrix Compiler2: 4.34 KB object code size  0.7/1.4/[0.5]

