Circuit: * C:\Users\maruzka\Documents\Kicad\envcity_aqm_v2\simulacoes\powerpath_andre.asc

WARNING: Less than two connections to node VUSB.  This node is used by V1.
Direct Newton iteration for .op point succeeded.

Date: Sun Jan 15 01:59:08 2023
Total elapsed time: 0.467 seconds.

tnom = 27
temp = 27
method = modified trap
totiter = 2104
traniter = 2092
tranpoints = 1042
accept = 1042
rejected = 0
matrix size = 22
fillins = 12
solver = Normal
Matrix Compiler1: 1.69 KB object code size  0.7/0.4/[0.3]
Matrix Compiler2: off  [0.3]/0.5/0.3

