Circuit: * C:\Users\maruzka\Documents\Kicad\envcity_aqm_v2\simulacoes\powerpath_1.asc

Direct Newton iteration for .op point succeeded.

Date: Thu Dec 22 15:03:21 2022
Total elapsed time: 0.562 seconds.

tnom = 27
temp = 27
method = modified trap
totiter = 2117
traniter = 2082
tranpoints = 1042
accept = 1042
rejected = 0
matrix size = 18
fillins = 10
solver = Normal
Matrix Compiler1: 1.34 KB object code size  0.6/0.4/[0.2]
Matrix Compiler2: 1.48 KB object code size  0.3/0.5/[0.2]

