.STEP increment has wrong sign -- fixing...
Circuit: * C:\Users\maruzka\Documents\Kicad\AQM-WROOM\aqm_envcity_hw\simulacoes\single_zvd.asc

Direct Newton iteration for .op point succeeded.
.step v=4.55
.step v=4.6
.step v=4.65
.step v=4.7
.step v=4.75
.step v=4.8
.step v=4.85
.step v=4.9
.step v=4.95
.step v=5
.step v=5.05
.step v=5.1
.step v=5.15
.step v=5.2
.step v=5.25
.step v=5.3
.step v=5.35
.step v=5.4
.step v=5.45
.step v=5.5

Date: Fri May 05 13:08:42 2023
Total elapsed time: 4.102 seconds.

tnom = 27
temp = 27
method = trap
totiter = 17
traniter = 0
tranpoints = 0
accept = 0
rejected = 0
matrix size = 17
fillins = 22
solver = Normal
Matrix Compiler1:     135 opcodes
Matrix Compiler2: 1.80 KB object code size
