Circuit: * C:\Users\maruzka\Documents\Kicad\envcity_aqm_v2\simulacoes\switch_input.asc

WARNING: Less than two connections to node VPAINEL_SWO2.  This node is used by S3.
WARNING: Less than two connections to node VUSB_SWO2.  This node is used by S4.
Direct Newton iteration for .op point succeeded.

pusb: AVG(-v(vusb2)*i(v5))=1.74567e-015 FROM 0 TO 0.1
pin: AVG(-i(v6)*v(vpainel2))=1.74567e-015 FROM 0 TO 0.1
pout: AVG(v(vout2)*i(r5))=1.70713 FROM 0 TO 0.1
eff: pout/(pin + pusb)=4.88961e+014


Date: Fri Dec 23 16:51:18 2022
Total elapsed time: 0.372 seconds.

tnom = 27
temp = 27
method = modified trap
totiter = 2101
traniter = 2082
tranpoints = 1042
accept = 1042
rejected = 0
matrix size = 19
fillins = 6
solver = Normal
Matrix Compiler1: 1.04 KB object code size  0.5/0.2/[0.2]
Matrix Compiler2: 1.46 KB object code size  0.2/0.4/[0.2]

