Circuit: * E:\Projetos Kicad\aqm_envcity_hw\simulacoes\zvd.asc

Warning: Multiple definitions of model "2scr375p" Type: BJT
Warning: Multiple definitions of model "bc857b" Type: BJT
Warning: Multiple definitions of model "bc847c" Type: BJT
Warning: Multiple definitions of model "bc847b" Type: BJT
WARNING: Less than two connections to node nc_01.  This node is used by v4.
.OP point found by inspection.

Date: Thu May  2 20:02:55 2024
Total elapsed time: 0.087 seconds.

tnom = 27
temp = 27
method = modified trap
totiter = 3305
traniter = 3305
tranpoints = 1437
accept = 1296
rejected = 141
matrix size = 38
fillins = 30
solver = Normal
Avg thread counts: 2.2/3.8/3.5/2.2
Matrix Compiler1:     238 opcodes  0.8/[0.5]/0.5
Matrix Compiler2: off  [0.3]/0.4/0.4

