Circuit: * E:\Projetos Kicad\aqm_envcity_hw\simulacoes\power_path\powerpath_heltec_adaptado.asc

Warning: Multiple definitions of model "2scr375p" Type: BJT
Warning: Multiple definitions of model "bc857b" Type: BJT
Warning: Multiple definitions of model "bc847c" Type: BJT
Warning: Multiple definitions of model "bc847b" Type: BJT
Direct Newton iteration for .op point succeeded.

Date: Sat Mar  8 16:14:21 2025
Total elapsed time: 0.078 seconds.

tnom = 27
temp = 27
method = modified trap
totiter = 3337
traniter = 3320
tranpoints = 1459
accept = 1318
rejected = 141
matrix size = 48
fillins = 62
solver = Normal
Avg thread counts: 2.2/3.7/3.5/2.2
Matrix Compiler1:     394 opcodes  1.2/[0.8]/0.9
Matrix Compiler2: off  [0.3]/0.8/0.5

